Version 4
SHEET 1 2432 2248
WIRE -464 -96 -672 -96
WIRE -320 -96 -464 -96
WIRE 80 -96 -320 -96
WIRE 400 -96 80 -96
WIRE 896 -96 400 -96
WIRE 1168 -96 896 -96
WIRE 896 -16 896 -96
WIRE 896 -16 816 -16
WIRE 896 16 896 -16
WIRE 816 48 816 -16
WIRE 80 112 80 -96
WIRE 896 128 896 96
WIRE 816 240 816 112
WIRE 896 240 896 208
WIRE 896 240 816 240
WIRE 1120 240 896 240
WIRE -672 256 -672 -96
WIRE 896 304 896 240
WIRE 400 320 400 -96
WIRE -464 336 -464 -96
WIRE 80 336 80 192
WIRE 368 336 80 336
WIRE 576 352 432 352
WIRE 688 352 576 352
WIRE 832 352 768 352
WIRE 1168 352 1168 -96
WIRE 368 368 336 368
WIRE 1120 368 1120 240
WIRE -16 400 -16 336
WIRE -240 416 -384 416
WIRE 336 448 336 368
WIRE 400 448 336 448
WIRE 576 448 576 352
WIRE 576 448 480 448
WIRE 336 464 336 448
WIRE -320 512 -320 -96
WIRE -384 528 -384 416
WIRE -352 528 -384 528
WIRE -240 544 -240 416
WIRE -240 544 -288 544
WIRE 336 544 -240 544
WIRE -464 560 -464 416
WIRE -352 560 -464 560
WIRE 896 560 896 400
WIRE 1120 560 1120 416
WIRE 1120 560 896 560
WIRE -464 608 -464 560
WIRE 80 640 80 336
WIRE 1168 640 1168 432
WIRE -672 832 -672 336
WIRE -16 832 -16 480
WIRE -16 832 -672 832
WIRE 80 832 80 720
WIRE 80 832 -16 832
WIRE 896 832 896 560
WIRE 896 832 80 832
WIRE 1168 848 1168 720
WIRE 80 864 80 832
FLAG 80 864 0
FLAG 1168 848 0
FLAG 400 384 0
FLAG -320 576 0
FLAG -464 688 0
SYMBOL voltage -672 240 R0
WINDOW 0 -51 47 Bottom 2
WINDOW 3 -54 67 Top 2
WINDOW 123 0 0 Left 2
WINDOW 39 0 0 Left 2
SYMATTR InstName V1
SYMATTR Value 11.95
SYMBOL res 64 624 R0
SYMATTR InstName Photoresistor_P
SYMATTR Value {R}
SYMBOL res 64 96 R0
SYMATTR InstName POT2
SYMATTR Value 20k
SYMATTR SpiceLine tol=1 pwr=0.1
SYMBOL res 880 112 R0
WINDOW 0 38 27 Left 2
SYMATTR InstName Relay_R
SYMATTR Value 400
SYMBOL sw 1168 448 M180
WINDOW 0 -186 14 Left 2
WINDOW 3 -191 109 Left 2
SYMATTR InstName RSW
SYMATTR Value RelaySwitch
SYMBOL res 1152 624 R0
SYMATTR InstName Load_LED_light
SYMATTR Value 32
SYMBOL ind 880 0 R0
SYMATTR InstName L1
SYMATTR Value 10µ
SYMBOL diode 832 112 R180
WINDOW 0 24 64 Left 2
WINDOW 3 24 0 Left 2
SYMATTR InstName D1
SYMATTR Value 1N4148
SYMBOL res 320 448 R0
SYMATTR InstName R1
SYMATTR Value 10k
SYMBOL res 496 432 R90
WINDOW 0 0 56 VBottom 2
WINDOW 3 32 56 VTop 2
SYMATTR InstName R2
SYMATTR Value 10k
SYMBOL Comparators\\LT1716 400 352 R0
SYMATTR InstName U1
SYMBOL Opamps\\LT1007 -320 480 R0
SYMATTR InstName U2
SYMBOL res -480 320 R0
SYMATTR InstName R3
SYMATTR Value 10k
SYMBOL res -480 592 R0
SYMATTR InstName POT1
SYMATTR Value 20k
SYMBOL voltage -16 384 R0
WINDOW 0 -51 47 Bottom 2
WINDOW 3 -54 94 Top 2
WINDOW 123 0 0 Left 2
WINDOW 39 0 0 Left 2
SYMATTR InstName V3
SYMATTR Value PULSE(12 0 0 .5 .5 1u 1)
SYMBOL res 784 336 R90
WINDOW 0 0 56 VBottom 2
WINDOW 3 32 56 VTop 2
SYMATTR InstName R5
SYMATTR Value 1k
SYMBOL npn 832 304 R0
SYMATTR InstName Q1
SYMATTR Value BC337-40
TEXT -32 -240 Left 2 !.op
TEXT 880 -144 Left 2 !.MODEL RelaySwitch SW( Vt = 11V )
TEXT 960 -184 Left 2 ;Relay module
TEXT -424 -368 Left 6 ;GARDEN LIGHT CONTROLLER
TEXT 288 640 Left 2 ;Photoresistor should vary between 2k and 600k Ohm \ndepending on sunlight.\n \nApprox resistance:\n2k Ohm with full sun (possibly even lower)\n600k Ohm with full dark
TEXT 104 0 Left 2 ;Potentiometer to regulate\nwhen to turn on and off.\nCurrently turning off at 24k Ohm
TEXT -2304 -56 Left 2 ;CHANGELOG:\n \n1) Replaced BJT with MOSFET\n2) Added hysteresis\n3) Swapped photoresistor and POT2 position\n4) Replaced MOSFET with BJT\n5) Added POT1\n6) Changed R5 from 470 to 1k Ohm. Reason:\n too low value, Q1 does not turn off with\nresidual 0.6 V from U1\n7) Changed transistor 2N3904 with BC337-40\nactually used in real model
TEXT -1416 -256 Left 2 ;V3 simulates the voltage signal as the light changes.\n- TRANSIENT SIMULATION (sunrise/sunset 1s): connet V3 to node A\n- OP PARAMETRIC SIMULATION (operating point during night/day): disconnect V3 from node A
TEXT 104 304 Left 2 ;Nodo A
TEXT -32 -272 Left 2 !.tran 1
TEXT -1696 -64 Left 2 ;POT1 changes the interval of ON/OFF with respect to voltage at bus A (and therefore the\nsun light brightness):\n \nBy lowering POT1 we increase the brightness required to turn (and keep) op amp U1 on.\nBy increasing POT1 we decrease the brigthness required to turn (and keep) op amp U1 on.\n \nRated value is 7.2k. POT1 should allow for a maximum of 20k and a minimum of 5k from B to GND\n5k ---> max brightness is required to turn op amp off (POT2 at 10k)\n20k ---> min brightness is required to turn op amp on (POT2 at 10k)
TEXT 432 272 Left 2 ;Hysteresis gap is about 0.4 V
TEXT -336 624 Left 2 ;Buffer
TEXT -496 544 Left 2 ;B
TEXT -2304 328 Left 2 ;POT2 changes the dependency of voltage at bus A with respect to the photoresistor: V_A(P) = 12 * P/(P + POT2)\nThe derivative of V(A) with respect to POT2 is: dV_A(P)/dPOT2 = POT2/(P + POT2)\nP is the resistance of the photoresistor\n \n- For low P (less than 10k Ohm):\nIncreasing POT2 decreases the speed of the change in voltage at bus A due to a change of resistance of P (and therefore a change of brightness). POT1 is 7.2k\nDecreasing POT2 increases the speed of the change in voltage at bus A due to a change of resistance of P (and therefore a change of brightness). POT1 is 7.2k\n \n- For high P (higher than 10k Ohm):\nP does not influence the behaviour of V_A that much.\n \nRated value for POT2 is 10k Ohm\nPOT2 should provide a resistance from VCC to A of minimum 10k and maximum 20k.\n10k ---> max sensitivity of V_A with respect to sun brightness\n20k ---> min sensitivity of V_A with respect to sun brightness\n \n\nSOLUTION: 10k resistor in series with 10k potentiometer\n \n \nR code to see what happens\n \nrm(list=ls())\n \n# Resistance of photoresistor\nPh <- 1:40000\n# Voltage of Vcc\nV <- 12\n# Voltage at A\nf <- function(P, POT2){V * P/(P + POT2) }\n \n# Plot of voltage at A as a function of POT2\nplot(Ph/1000, f(Ph, 10000), col="red", "l", xlab = "Photoresistor value [kOhm]", ylab = "Voltage at V+ of comparator U1")\nlines(Ph/1000, f(Ph, 20000), col="blue")\nlines(Ph/1000, f(Ph, 30000), col="yellow")\n \nlegend("bottomright", legend=c("10k", "20k", "30k"),\n       col=c("red", "blue", "yellow"), lty=1, cex=0.7)\n \n# Derivative of Voltage at bus A with respect to POT2\nfp <- function(P, POT2){POT2/(P+POT2)^2}\n# Plot of voltage at A as a function of POT2\nplot(Ph/1000, fp(Ph, 10000)*V, col="red", "l", xlab = "Photoresistor value [kOhm]", ylab = "Derivative of Voltage at V_A")\nlines(Ph/1000, fp(Ph, 20000)*V, col="blue")\nlines(Ph/1000, fp(Ph, 30000)*V, col="yellow")\n \nlegend("bottomright", legend=c("10k", "20k", "30k"),\n       col=c("red", "blue", "yellow"), lty=1, cex=0.7)
TEXT -40 -192 Left 2 !.step param R 1k 40k 10k
TEXT -2304 -312 Left 2 ;Operational notes:\n \n1) Dual opamp LM358CN when LOW has an output voltage of about 0.6 V.\nTo avoid accidental turn on of transistor, a resistor of 1k is used on the base.\n2) Voltage at bus B should be around 5V for indoor testing purposes. Initial \nTests have been successfull with POT1 and POT2 both at their initial value\n(presumably 10k Ohm).
RECTANGLE Normal 1296 576 864 -208 2
